Version 4
SHEET 1 1424 680
WIRE 368 64 368 16
WIRE 832 64 832 16
WIRE 0 80 0 16
WIRE 272 208 160 208
WIRE 368 208 368 144
WIRE 368 208 272 208
WIRE 736 208 624 208
WIRE 832 208 832 144
WIRE 832 208 736 208
WIRE 368 288 368 208
WIRE 832 288 832 208
WIRE 528 304 416 304
WIRE 992 304 880 304
WIRE 1040 304 992 304
WIRE 528 432 528 304
WIRE 992 432 992 304
WIRE 992 432 528 432
FLAG 0 160 0
FLAG 0 16 VDD
FLAG 368 16 VDD
FLAG 368 368 0
FLAG 416 352 0
FLAG 272 208 I2C@1K
FLAG 1040 384 0
FLAG 160 272 0
FLAG 832 16 VDD
FLAG 832 368 0
FLAG 880 352 0
FLAG 736 208 I2C@10K
FLAG 624 272 0
SYMBOL voltage 0 64 R0
WINDOW 123 0 0 Left 0
WINDOW 39 0 0 Left 0
SYMATTR InstName V1
SYMATTR Value 3.3
SYMBOL res 352 48 R0
SYMATTR InstName R1
SYMATTR Value 1K
SYMBOL sw 368 384 R180
SYMATTR InstName S1
SYMATTR Value I2C_SW
SYMBOL voltage 1040 288 R0
WINDOW 123 0 0 Left 0
WINDOW 39 0 0 Left 0
SYMATTR InstName V2
SYMATTR Value PULSE(0 1 0 1n 1n 1.25u 2.5u)
SYMBOL cap 144 208 R0
SYMATTR InstName C1
SYMATTR Value 60pF
SYMBOL res 816 48 R0
SYMATTR InstName R2
SYMATTR Value 10K
SYMBOL sw 832 384 R180
SYMATTR InstName S2
SYMATTR Value I2C_SW
SYMBOL cap 608 208 R0
SYMATTR InstName C2
SYMATTR Value 60pF
TEXT -8 -176 Left 2 !.tran 25u
TEXT -8 -144 Left 2 !.options numdgt=7
TEXT -8 -112 Left 2 !.model I2C_SW SW(Ron=1u Roff=1meg Vt=0.5 Vh=0.1)
